wipe
puts "System"
model basic -ndm 2 -ndf 3
puts "restraint"


###################################################################################################
#          Define Column Properties                                                   
###################################################################################################
set Wid_Column 300.0;                         # Width of the column [mm]
set Len_Column [expr 5.0*$Wid_Column];        # Lenght of the column [mm]
set Thi_Column 11.0 
set R_Column [expr 3.0*$Thi_Column];          # Outside corner radius of the column [mm]
set ri_Column [expr $R_Column-$Thi_Column];   # Inner corner radius of the column [mm]

#set N_al -1.083E+006;                        # Axial compression loads
#set E 206000.0;                              #Young’s Modulus
set Dia_Rigidrod 100.0;                       # Diameter of rigid rod [mm]

set PI [expr acos(-1.0)];

###################################################################################################
#          Define Material Properties                                                   
###################################################################################################
set E0 206000.000 
set lambda_t 2.0
set lambda_a 2.0
set lambda_r 2.0
set c_t 1.0
set c_cp 1.0
set c_a 1.0
set c_yp 1.0
set c_r 1.0
set N 1 

#flat
set fy_f 294.000000 
set b2_f 0.054606 
set sigma_cm_f -400.725209 
set a_f 48.305328 
set sigma_rm_f -150.000000 
set b3_f 1.234770 
set lambda_cp_f 0.320223 
set lambda_yp_f 0.425026 
set Q_inf_f 114.000 
set b_f 13.200 
set C_1_f 2500.000 
set gamma_1_f 19.000 
set C_2_f 0.000 
set gamma_2_f 0.000 
set C_3_f 0.000 
set gamma_3_f 0.000 

#corner
set fy_c 792.978967 
set b2_c 0.002834 
set sigma_cm_c -819.826294 
set a_c 10.536040 
set sigma_rm_c -150.000000 
set b3_c 1.043309 
set lambda_cp_c 1.294990 
set lambda_yp_c 6.988693 
set Q_inf_c 114.000 
set b_c 13.200 
set C_1_c 2500.000 
set gamma_1_c 19.000 
set C_2_c 0.000 
set gamma_2_c 0.000 
set C_3_c 0.000 
set gamma_3_c 0.000 

# Axial compression loads
set nc 0.3; 
set N_al [expr -$nc * (($Wid_Column - 2.0*$R_Column)*$Thi_Column*4.0 + $PI * ($R_Column*$R_Column - $ri_Column*$ri_Column)) * $fy_f];

###################################################################################################
#          Define Nodes & Boundary Conditions                             
###################################################################################################
puts "Create nodes"
#      tag    X       Y
node    1   0.0     0.0; 
node    2   0.0     $Len_Column;
node    3   0.0     $Len_Column;
node    4   -791.0  $Len_Column;
node    5  0.0     [expr $Len_Column+306.0];

equalDOF 3 2 1 2 3; 

puts "Fix nodes"
#   Tag DX  DY  RZ
fix 1  1   1   1;


###################################################################################################
#          Define materials                            
###################################################################################################
puts "material"
# flat
uniaxialMaterial CFSTsteel 1 $E0 $fy_f $b2_f $sigma_cm_f $a_f $sigma_rm_f $b3_f $lambda_t $lambda_cp_f $lambda_a $lambda_yp_f $lambda_r $c_t $c_cp $c_a $c_yp $c_r $Q_inf_f $b_f $N $C_1_f $gamma_1_f; 
# corner
uniaxialMaterial CFSTsteel 2 $E0 $fy_c $b2_c $sigma_cm_c $a_c $sigma_rm_c $b3_c $lambda_t $lambda_cp_c $lambda_a $lambda_yp_c $lambda_r $c_t $c_cp $c_a $c_yp $c_r $Q_inf_c $b_c $N $C_1_c $gamma_1_c; 
#弹性段
uniaxialMaterial Elastic 3 $E0;

###################################################################################################
#          Define fiber section                            
###################################################################################################
section Fiber 1 -GJ 1e+9 {
    #A500 Grade B flat
    patch rect  1  6  1  [expr -$Wid_Column/2+$R_Column] [expr -$Wid_Column/2] [expr $Wid_Column/2-$R_Column] [expr -$Wid_Column/2+$Thi_Column]
    patch rect  1  6  1  [expr -$Wid_Column/2+$R_Column] [expr $Wid_Column/2-$Thi_Column] [expr $Wid_Column/2-$R_Column] [expr $Wid_Column/2]
    patch rect  1  4  1  [expr -$Wid_Column/2] [expr -$Wid_Column/2+$R_Column] [expr -$Wid_Column/2+$Thi_Column] [expr $Wid_Column/2-$R_Column]
    patch rect  1  4  1  [expr $Wid_Column/2-$Thi_Column] [expr -$Wid_Column/2+$R_Column] [expr $Wid_Column/2] [expr $Wid_Column/2-$R_Column]
    
    #A500 Grade B corner
    patch circ  2  3  1  [expr $Wid_Column/2-$R_Column] [expr $Wid_Column/2-$R_Column] [expr $R_Column-$Thi_Column] $R_Column 0 90
    patch circ  2  3  1  [expr -$Wid_Column/2+$R_Column] [expr $Wid_Column/2-$R_Column] [expr $R_Column-$Thi_Column] $R_Column 90 180
    patch circ  2  3  1  [expr -$Wid_Column/2+$R_Column] [expr -$Wid_Column/2+$R_Column] [expr $R_Column-$Thi_Column] $R_Column 180 270
    patch circ  2  3  1  [expr $Wid_Column/2-$R_Column] [expr -$Wid_Column/2+$R_Column] [expr $R_Column-$Thi_Column] $R_Column 270 360
}

#弹性截面
section Fiber 2 -GJ 1e+9 {
    #A500 Grade B flat
    patch rect  3  6  1  [expr -$Wid_Column/2+$R_Column] [expr -$Wid_Column/2] [expr $Wid_Column/2-$R_Column] [expr -$Wid_Column/2+$Thi_Column]
    patch rect  3  6  1  [expr -$Wid_Column/2+$R_Column] [expr $Wid_Column/2-$Thi_Column] [expr $Wid_Column/2-$R_Column] [expr $Wid_Column/2]
    patch rect  3  4  1  [expr -$Wid_Column/2] [expr -$Wid_Column/2+$R_Column] [expr -$Wid_Column/2+$Thi_Column] [expr $Wid_Column/2-$R_Column]
    patch rect  3  4  1  [expr $Wid_Column/2-$Thi_Column] [expr -$Wid_Column/2+$R_Column] [expr $Wid_Column/2] [expr $Wid_Column/2-$R_Column]
    
    #A500 Grade B corner
    patch circ  3  3  1  [expr $Wid_Column/2-$R_Column] [expr $Wid_Column/2-$R_Column] [expr $R_Column-$Thi_Column] $R_Column 0 90
    patch circ  3  3  1  [expr -$Wid_Column/2+$R_Column] [expr $Wid_Column/2-$R_Column] [expr $R_Column-$Thi_Column] $R_Column 90 180
    patch circ  3  3  1  [expr -$Wid_Column/2+$R_Column] [expr -$Wid_Column/2+$R_Column] [expr $R_Column-$Thi_Column] $R_Column 180 270
    patch circ  3  3  1  [expr $Wid_Column/2-$R_Column] [expr -$Wid_Column/2+$R_Column] [expr $R_Column-$Thi_Column] $R_Column 270 360
}

###################################################################################################
#          Define elements                           
###################################################################################################
puts "transformation"
geomTransf PDelta 1;
geomTransf PDelta 2;

puts "element"
# 两端铰长度
set lpI [expr 0.8*$Wid_Column];   # I 端塑性铰长度
set lpJ 0.0;   # J 端塑性铰长度

# 截面号（事先定义）
set secTagI  1;    # I 端铰截面
set secTagJ  1;    # J 端铰截面
set secTagE  2;    # 弹性段截面

set integration "HingeMidpoint $secTagI $lpI $secTagJ $lpJ $secTagE";

#element forceBeamColumn $tag $ndI $ndJ $transfTag $integration
element forceBeamColumn 1 1 2 1 $integration;

element elasticBeamColumn 2 3 4 [expr acos(-1)*($Dia_Rigidrod**2)/4.0] [expr $E0*10.0] [expr acos(-1)*($Dia_Rigidrod**4)/64.0] 2;
element elasticBeamColumn 3 3 5 [expr acos(-1)*($Dia_Rigidrod**2)/4.0] [expr $E0*10.0] [expr acos(-1)*($Dia_Rigidrod**4)/64.0] 2;

###################################################################################################
#          Define recorder                           
###################################################################################################
puts "recorder"
recorder Node -file node2nu.txt -time -node 2 -dof 1 disp;
recorder Node -file node1nm.txt -time -node 1 -dof 3 reaction;
#recorder Element -file element1f.txt -time -ele 1 section 1 fiber [expr -$Wid_Column/2] 0 stressStrain
#recorder Element -file element2c.txt -time -ele 1 section 1 fiber [expr -$cor_x] $cor_y stressStrain

###################################################################################################
#          Analysis Section                           
###################################################################################################
puts "loading"
# Load Case = DEAD
pattern Plain 1 Linear {
    load 5 0 $N_al 0
}
puts "analysis"
constraints Plain
numberer Plain
system BandGeneral
test EnergyIncr 1.0e-6 200
algorithm Newton
integrator LoadControl 0.1
analysis Static
analyze 10
puts "gravity analysis ok"
##################################################################
loadConst 0.0
puts "pushover"
## Load Case = PUSH
pattern Plain 2 Linear {
    load 4 1 0 0
}
puts "analysis"
constraints Plain
numberer Plain
system BandGeneral
test NormDispIncr 1.0e-6 1000
algorithm KrylovNewton
analysis Static
#################################################################
set disp [list 0 0.5 1 1.5 2 2.5 3 3.5 4 4.83852 4.33852 3.83852 3.33852 2.83852 2.33852 1.83852 1.33852 0.83852 0.33852 -0.16148 -0.66148 -1.16148 -1.66148 -2.16148 -2.66148 -3.16148 -3.66148 -4.16148 -4.66148 -5.52974 -5.02974 -4.52974 -4.02974 -3.52974 -3.02974 -2.52974 -2.02974 -1.52974 -1.02974 -0.529742 -0.0297415 0.470258 0.970258 1.47026 1.97026 2.47026 2.97026 3.47026 3.97026 4.83852 4.33

  set LoopLength [llength $disp]

  set h 1  

# Run the static cyclic analysis

  set NSteps 1;

  set dU1 0;

  set ok 0;

  puts "Analysis..."

  set tStart [clock seconds];

  while {$ok == 0 && $h < $LoopLength} {

              # List is zero index

              set index [expr $h]

              # We need to relative deformation of the loading protocol

              # Subtract dUi+1 - dUi

              set D1 [lindex $disp $index];

              set D2 [lindex $disp $index-1];

              #set dU1 [expr ($D1-$D2)*$L];

              set dU1 [expr ($D1-$D2)];

             
              # Create Nsteps from Amplitude to Amplitude

              set dU [expr ($dU1)/$NSteps]

             
              # Displacement Control Integrator

              integrator DisplacementControl 4 1 $dU

              analysis Static

     puts "increment = [expr {$h}] / [expr {$LoopLength}]";


              set ok [ analyze $NSteps]

              set h [expr $h + 1 ]

}            

set tFinish [clock seconds];
